network/quebec_735kv.m
function mpc = quebec_735kv
%% Exported from PyPSA network elec_735kv.nc, snapshot 2022-01-04 08:00:00
%% Total load: 36318.3 MW, total generation (incl. storage): 36318.3 MW
%% Generator Qmax/Qmin are a generic assumption (not measured) -- see script docstring.

mpc.version = '2';

mpc.baseMVA = 100.0;

%% bus data
%	bus_i	type	Pd	Qd	Gs	Bs	area	Vm	Va	baseKV	zone	Vmax	Vmin
mpc.bus = [
	1	1	12.0763	3.96928	0	0	1	1	-35.9608	735	1	1.05	0.95;
	2	1	122.885	40.3905	0	0	1	1	-27.4064	735	1	1.05	0.95;
	3	1	78.517	25.8073	0	0	1	1	-27.8345	735	1	1.05	0.95;
	4	1	16.0668	5.28091	0	0	1	1	-12.3957	735	1	1.05	0.95;
	5	1	785.282	258.11	0	0	1	1	-36.5622	735	1	1.05	0.95;
	6	2	2.76723	0.909545	0	0	1	1	-8.81472	735	1	1.05	0.95;
	7	2	8.02295	2.63702	0	0	1	1	13.6028	735	1	1.05	0.95;
	8	1	152.824	50.2309	0	0	1	1	43.8963	735	1	1.05	0.95;
	9	1	64.1519	21.0857	0	0	1	1	-22.122	735	1	1.05	0.95;
	10	2	756.748	248.731	0	0	1	1	-31.9183	735	1	1.05	0.95;
	11	1	107.082	35.1963	0	0	1	1	-34.4865	735	1	1.05	0.95;
	12	2	5.3043	1.74344	0	0	1	1	-1.32893	735	1	1.05	0.95;
	13	1	1824.32	599.625	0	0	1	1	-25.1341	735	1	1.05	0.95;
	14	1	1024.03	336.582	0	0	1	1	-31.0614	735	1	1.05	0.95;
	15	1	12498.3	4108.01	0	0	1	1	-41.4236	735	1	1.05	0.95;
	16	1	89.0602	29.2727	0	0	1	1	-34.8394	735	1	1.05	0.95;
	17	2	6.45963	2.12318	0	0	1	1	5.29549	735	1	1.05	0.95;
	18	1	250.357	82.2884	0	0	1	1	-29.0044	735	1	1.05	0.95;
	19	1	90.0107	29.5851	0	0	1	1	-37.8597	735	1	1.05	0.95;
	20	1	149.178	49.0326	0	0	1	1	-27.1693	735	1	1.05	0.95;
	21	1	211.77	69.6055	0	0	1	1	-25.9901	735	1	1.05	0.95;
	22	1	1376.6	452.465	0	0	1	1	-28.5438	735	1	1.05	0.95;
	23	1	843.563	277.266	0	0	1	1	-36.8138	735	1	1.05	0.95;
	24	1	162.581	53.4379	0	0	1	1	-6.42055	735	1	1.05	0.95;
	25	1	3378.11	1110.33	0	0	1	1	-17.508	735	1	1.05	0.95;
	26	1	18.7257	6.15483	0	0	1	1	-9.45612	735	1	1.05	0.95;
	27	1	2.11471	0.695072	0	0	1	1	-12.0196	735	1	1.05	0.95;
	28	1	0.875775	0.287853	0	0	1	1	-4.12011	735	1	1.05	0.95;
	29	1	514.86	169.226	0	0	1	1	-35.2772	735	1	1.05	0.95;
	30	1	63.7846	20.965	0	0	1	1	-35.8212	735	1	1.05	0.95;
	31	1	494.177	162.428	0	0	1	1	-34.7667	735	1	1.05	0.95;
	32	1	130.675	42.9507	0	0	1	1	-29.892	735	1	1.05	0.95;
	33	1	42.1712	13.861	0	0	1	1	-34.9368	735	1	1.05	0.95;
	34	3	3.33984	1.09775	0	0	1	1	0	735	1	1.05	0.95;
	35	2	186.811	61.4017	0	0	1	1	-15.0243	735	1	1.05	0.95;
	36	2	66.6776	21.9159	0	0	1	1	22.6173	735	1	1.05	0.95;
	37	1	403.045	132.474	0	0	1	1	-37.3038	735	1	1.05	0.95;
	38	2	541.65	178.032	0	0	1	1	-3.24444	735	1	1.05	0.95;
	39	2	1621.38	532.922	0	0	1	1	-21.3189	735	1	1.05	0.95;
	40	1	563.082	185.076	0	0	1	1	-36.9716	735	1	1.05	0.95;
	41	1	85.7776	28.1937	0	0	1	1	-23.6792	735	1	1.05	0.95;
	42	1	2187.51	719	0	0	1	1	-14.616	735	1	1.05	0.95;
	43	2	32.1516	10.5677	0	0	1	1	25.6258	735	1	1.05	0.95;
	44	1	1885.52	619.74	0	0	1	1	-40.9127	735	1	1.05	0.95;
	45	1	268.638	88.2969	0	0	1	1	-36.1091	735	1	1.05	0.95;
	46	1	0.0201714	0.00663002	0	0	1	1	4.64618	735	1	1.05	0.95;
	47	1	25.3533	8.33323	0	0	1	1	-9.71215	735	1	1.05	0.95;
	48	1	812.345	267.005	0	0	1	1	-16.0916	735	1	1.05	0.95;
	49	2	38.0829	12.5172	0	0	1	1	44.5615	735	1	1.05	0.95;
	50	1	1.93487	0.635962	0	0	1	1	16.7594	735	1	1.05	0.95;
	51	2	143.998	47.3297	0	0	1	1	57.6714	735	1	1.05	0.95;
	52	1	251.062	82.5201	0	0	1	1	-22.8098	735	1	1.05	0.95;
	53	1	391.44	128.66	0	0	1	1	-22.1435	735	1	1.05	0.95;
	54	1	331.856	109.076	0	0	1	1	-40.854	735	1	1.05	0.95;
	55	1	103.273	33.9444	0	0	1	1	-35.0647	735	1	1.05	0.95;
	56	2	491.511	161.552	0	0	1	1	-34.2973	735	1	1.05	0.95;
	57	1	42.8488	14.0837	0	0	1	1	-38.1151	735	1	1.05	0.95;
	58	1	555.537	182.596	0	0	1	1	-37.3234	735	1	1.05	0.95;
];

%% generator data
%	bus	Pg	Qg	Qmax	Qmin	Vg	mBase	status	Pmax	Pmin	Pc1	Pc2	Qc1min	Qc1max	Qc2min	Qc2max	ramp_agc	ramp_10	ramp_30	ramp_q	apf
mpc.gen = [
	17	1249.84	0	821.781	-821.781	1	1326	1	1326	0	0	0	0	0	0	0	0	0	0	0	0;
	34	3462.34	0	2505.01	-2505.01	1	4042	1	4042	0	0	0	0	0	0	0	0	0	0	0	0;
	52	13.1845	0	65.4922	-65.4922	1	105.676	1	105.676	0	0	0	0	0	0	0	0	0	0	0	0;
	56	1917.45	0	1258.7	-1258.7	1	2031	1	2031	0	0	0	0	0	0	0	0	0	0	0	0;
	10	1421.23	0	907.925	-907.925	1	1465	1	1465	0	0	0	0	0	0	0	0	0	0	0	0;
	42	122.022	0	1046.43	-1046.43	1	1688.49	1	1688.49	0	0	0	0	0	0	0	0	0	0	0	0;
	39	0	0	254.715	-254.715	1	411	1	411	0	0	0	0	0	0	0	0	0	0	0	0;
	39	525.007	0	888.094	-888.094	1	1433	1	1433	0	0	0	0	0	0	0	0	0	0	0	0;
	39	0	0	1.31003	-1.31003	1	2.11382	1	2.11382	0	0	0	0	0	0	0	0	0	0	0	0;
	5	12.2272	0	81.9962	-81.9962	1	132.306	1	132.306	0	0	0	0	0	0	0	0	0	0	0	0;
	5	0	0	3.72854	-3.72854	1	6.01626	1	6.01626	0	0	0	0	0	0	0	0	0	0	0	0;
	29	3.71974	0	16.1111	-16.1111	1	25.9963	1	25.9963	0	0	0	0	0	0	0	0	0	0	0	0;
	25	34.9554	0	482.808	-482.808	1	779.044	1	779.044	0	0	0	0	0	0	0	0	0	0	0	0;
	25	362.887	0	238.602	-238.602	1	385	1	385	0	0	0	0	0	0	0	0	0	0	0	0;
	35	284.654	0	187.163	-187.163	1	302	1	302	0	0	0	0	0	0	0	0	0	0	0	0;
	43	0	0	197.698	-197.698	1	319	1	319	0	0	0	0	0	0	0	0	0	0	0	0;
	48	387.393	0	254.715	-254.715	1	411	1	411	0	0	0	0	0	0	0	0	0	0	0	0;
	53	190.007	0	199.129	-199.129	1	321.308	1	321.308	0	0	0	0	0	0	0	0	0	0	0	0;
	12	0	0	4785.67	-4785.67	1	7722	1	7722	0	0	0	0	0	0	0	0	0	0	0	0;
	19	0	0	1.15887	-1.15887	1	1.86992	1	1.86992	0	0	0	0	0	0	0	0	0	0	0	0;
	6	0	0	92.9617	-92.9617	1	150	1	150	0	0	0	0	0	0	0	0	0	0	0	0;
	38	0	0	889.953	-889.953	1	1436	1	1436	0	0	0	0	0	0	0	0	0	0	0	0;
	36	0	0	274.085	-274.085	1	442.254	1	442.254	0	0	0	0	0	0	0	0	0	0	0	0;
	36	0	0	167.331	-167.331	1	270	1	270	0	0	0	0	0	0	0	0	0	0	0	0;
	7	0	0	1497.92	-1497.92	1	2417	1	2417	0	0	0	0	0	0	0	0	0	0	0	0;
	49	0	0	396.636	-396.636	1	640	1	640	0	0	0	0	0	0	0	0	0	0	0	0;
	51	0	0	3363.97	-3363.97	1	5428	1	5428	0	0	0	0	0	0	0	0	0	0	0	0;
	17	3742.92	0	2492.61	-2492.61	1	4022	1	4022	0	0	0	0	0	0	0	0	0	0	0	0;
	34	1060.38	0	697.212	-697.212	1	1125	1	1125	0	0	0	0	0	0	0	0	0	0	0	0;
	10	2.2e-06	0	71.8903	-71.8903	1	116	1	116	0	0	0	0	0	0	0	0	0	0	0	0;
	35	204.536	0	134.485	-134.485	1	217	1	217	0	0	0	0	0	0	0	0	0	0	0	0;
	43	3889.01	0	2557.07	-2557.07	1	4126	1	4126	0	0	0	0	0	0	0	0	0	0	0	0;
	49	603.24	0	396.636	-396.636	1	640	1	640	0	0	0	0	0	0	0	0	0	0	0	0;
	12	7278.47	0	4785.67	-4785.67	1	7722	1	7722	0	0	0	0	0	0	0	0	0	0	0	0;
	7	2278.17	0	1497.92	-1497.92	1	2417	1	2417	0	0	0	0	0	0	0	0	0	0	0	0;
	6	723.888	0	773.441	-773.441	1	1248	1	1248	0	0	0	0	0	0	0	0	0	0	0	0;
	51	5116.23	0	3363.97	-3363.97	1	5428	1	5428	0	0	0	0	0	0	0	0	0	0	0	0;
	36	1434.58	0	943.251	-943.251	1	1522	1	1522	0	0	0	0	0	0	0	0	0	0	0	0;
];

%% branch data
%	fbus	tbus	r	x	b	rateA	rateB	rateC	ratio	angle	status	angmin	angmax
mpc.branch = [
	11	23	0.000145918	0.0048153	2.08667	23634.1	23634.1	23634.1	0	0	1	-360	360;
	25	39	9.31012e-05	0.00307234	1.33138	21816.8	21816.8	21816.8	0	0	1	-360	360;
	19	5	6.4015e-05	0.0021125	0.915435	21816.8	21816.8	21816.8	0	0	1	-360	360;
	5	37	8.67356e-05	0.00286227	1.24035	21816.8	21816.8	21816.8	0	0	1	-360	360;
	38	6	0.000533939	0.005286	17.1799	5960.96	5960.96	5960.96	0	0	1	-360	360;
	12	38	4.74675e-05	0.00156643	0.6788	21816.8	21816.8	21816.8	0	0	1	-360	360;
	6	28	9.4619e-05	0.00312243	1.35308	21816.8	21816.8	21816.8	0	0	1	-360	360;
	50	28	0.000662024	0.0218468	9.46715	7095.2	7095.2	7095.2	0	0	1	-360	360;
	43	50	0.000358223	0.0118213	5.1227	12793.9	12793.9	12793.9	0	0	1	-360	360;
	7	28	0.000809317	0.0267074	11.5735	5905.45	5905.45	5905.45	0	0	1	-360	360;
	12	6	0.000281711	0.00278893	36.2569	5682.19	5682.19	5682.19	0	0	1	-360	360;
	6	48	0.000638026	0.00315823	9.12396	7343.78	7343.78	7343.78	0	0	1	-360	360;
	7	12	0.000484046	0.0159735	6.922	9547.94	9547.94	9547.94	0	0	1	-360	360;
	49	36	0.000646633	0.0213389	9.24706	7252.41	7252.41	7252.41	0	0	1	-360	360;
	19	44	4.10894e-05	0.00135595	0.587591	21816.8	21816.8	21816.8	0	0	1	-360	360;
	29	19	0.000138061	0.00455601	1.97431	21816.8	21816.8	21816.8	0	0	1	-360	360;
	2	18	4.8087e-05	0.00158687	0.687658	21816.8	21816.8	21816.8	0	0	1	-360	360;
	17	46	1.52168e-05	0.000502153	0.217604	21816.8	21816.8	21816.8	0	0	1	-360	360;
	17	26	0.00070419	0.0232383	10.0701	6701.09	6701.09	6701.09	0	0	1	-360	360;
	20	32	0.000105138	0.00346955	1.5035	21816.8	21816.8	21816.8	0	0	1	-360	360;
	22	10	0.000167668	0.00553305	2.39771	21816.8	21816.8	21816.8	0	0	1	-360	360;
	26	35	0.000328366	0.0108361	4.69574	13934.6	13934.6	13934.6	0	0	1	-360	360;
	42	52	0.000184111	0.00607565	2.63284	21816.8	21816.8	21816.8	0	0	1	-360	360;
	42	9	0.000198869	0.00656267	2.84389	21816.8	21816.8	21816.8	0	0	1	-360	360;
	42	47	7.46063e-05	0.00246201	1.06689	21816.8	21816.8	21816.8	0	0	1	-360	360;
	42	25	7.30079e-05	0.00240926	1.04404	21816.8	21816.8	21816.8	0	0	1	-360	360;
	15	54	4.87138e-05	0.00160756	0.696623	21816.8	21816.8	21816.8	0	0	1	-360	360;
	54	1	0.000133726	0.00441296	1.91233	21816.8	21816.8	21816.8	0	0	1	-360	360;
	3	32	0.000165618	0.0054654	2.36839	21816.8	21816.8	21816.8	0	0	1	-360	360;
	42	52	0.000184408	0.00608547	2.6371	21816.8	21816.8	21816.8	0	0	1	-360	360;
	2	18	4.7909e-05	0.001581	0.685114	21816.8	21816.8	21816.8	0	0	1	-360	360;
	39	55	0.000406789	0.013424	5.81721	11299.5	11299.5	11299.5	0	0	1	-360	360;
	48	13	0.000802275	0.00397126	11.4728	5951.85	5951.85	5951.85	0	0	1	-360	360;
	39	26	0.000504351	0.0166436	7.21237	9178.12	9178.12	9178.12	0	0	1	-360	360;
	24	47	4.9715e-05	0.0016406	0.71094	21816.8	21816.8	21816.8	0	0	1	-360	360;
	44	15	3.7503e-05	0.0012376	0.536305	21816.8	21816.8	21816.8	0	0	1	-360	360;
	16	15	0.000156552	0.00516621	2.23874	21816.8	21816.8	21816.8	0	0	1	-360	360;
	1	55	2.43383e-05	0.000803163	0.348045	21816.8	21816.8	21816.8	0	0	1	-360	360;
	39	29	0.000492008	0.0162363	7.03587	9399.2	9399.2	9399.2	0	0	1	-360	360;
	34	42	0.00069523	0.00688278	22.3695	4746.22	4746.22	4746.22	0	0	1	-360	360;
	10	56	0.00024714	0.0081556	3.53417	18446.3	18446.3	18446.3	0	0	1	-360	360;
	56	5	0.000121683	0.00401553	1.7401	21816.8	21816.8	21816.8	0	0	1	-360	360;
	17	46	1.46308e-05	0.000482818	0.209226	21816.8	21816.8	21816.8	0	0	1	-360	360;
	34	42	0.000700618	0.00693611	22.5429	4716.22	4716.22	4716.22	0	0	1	-360	360;
	36	34	0.000481624	0.0158936	6.88737	9594.17	9594.17	9594.17	0	0	1	-360	360;
	13	14	0.00047419	0.00234724	6.78106	9739.1	9739.1	9739.1	0	0	1	-360	360;
	13	22	0.000492505	0.0024379	7.04298	9390.08	9390.08	9390.08	0	0	1	-360	360;
	8	49	0.000690727	0.022794	9.8776	6821.47	6821.47	6821.47	0	0	1	-360	360;
	8	49	0.000690173	0.0227757	9.86968	6826.52	6826.52	6826.52	0	0	1	-360	360;
	8	49	0.000690832	0.0227975	9.87912	6820.5	6820.5	6820.5	0	0	1	-360	360;
	4	35	0.000553897	0.0182786	7.9209	8391.98	8391.98	8391.98	0	0	1	-360	360;
	43	50	0.000367992	0.0121437	5.2624	12461.2	12461.2	12461.2	0	0	1	-360	360;
	43	50	0.000368218	0.0121512	5.26564	12453.7	12453.7	12453.7	0	0	1	-360	360;
	4	35	0.000553671	0.0182711	7.91766	8395.25	8395.25	8395.25	0	0	1	-360	360;
	28	4	0.000689458	0.0227521	9.85947	6833.06	6833.06	6833.06	0	0	1	-360	360;
	6	48	0.000637972	0.00315796	9.1232	7344.36	7344.36	7344.36	0	0	1	-360	360;
	48	13	0.000758019	0.0037522	10.8399	6264.55	6264.55	6264.55	0	0	1	-360	360;
	13	10	0.000644211	0.00318884	9.21241	7277.87	7277.87	7277.87	0	0	1	-360	360;
	48	4	0.000177296	0.00585076	2.53538	21816.8	21816.8	21816.8	0	0	1	-360	360;
	38	6	0.000533944	0.00528604	17.18	5960.91	5960.91	5960.91	0	0	1	-360	360;
	4	35	0.000565677	0.0186674	8.08936	8225.83	8225.83	8225.83	0	0	1	-360	360;
	35	39	0.000682622	0.0225265	9.7617	6896.33	6896.33	6896.33	0	0	1	-360	360;
	6	48	0.000700046	0.00346523	10.0109	6737.63	6737.63	6737.63	0	0	1	-360	360;
	28	4	0.000734149	0.0242269	10.4986	6449.82	6449.82	6449.82	0	0	1	-360	360;
	28	27	0.000655292	0.0216246	9.37088	7163.02	7163.02	7163.02	0	0	1	-360	360;
	7	50	0.000321337	0.0106041	4.59522	14234.3	14234.3	14234.3	0	0	1	-360	360;
	35	39	0.000682966	0.0225379	9.76663	6893.11	6893.11	6893.11	0	0	1	-360	360;
	50	28	0.000662312	0.0218563	9.47126	7092.33	7092.33	7092.33	0	0	1	-360	360;
	49	36	0.000646588	0.0213374	9.24641	7252.89	7252.89	7252.89	0	0	1	-360	360;
	49	36	0.000646659	0.0213397	9.24742	7252.15	7252.15	7252.15	0	0	1	-360	360;
	45	30	1.13819e-05	0.000375603	0.162765	21816.8	21816.8	21816.8	0	0	1	-360	360;
	34	24	0.000308902	0.00305813	39.7566	5242.78	5242.78	5242.78	0	0	1	-360	360;
	48	13	0.000758111	0.00375265	10.8412	6263.86	6263.86	6263.86	0	0	1	-360	360;
	9	21	0.000118215	0.0039011	1.69051	21816.8	21816.8	21816.8	0	0	1	-360	360;
	30	31	3.97816e-05	0.00131279	0.568889	21816.8	21816.8	21816.8	0	0	1	-360	360;
	40	45	4.26565e-05	0.00140766	0.610001	21816.8	21816.8	21816.8	0	0	1	-360	360;
	31	32	0.000135979	0.00448732	1.94455	21816.8	21816.8	21816.8	0	0	1	-360	360;
	53	9	1.11758e-05	0.000368801	0.159817	21816.8	21816.8	21816.8	0	0	1	-360	360;
	9	53	1.14896e-05	0.000379155	0.164304	21816.8	21816.8	21816.8	0	0	1	-360	360;
	21	20	4.10604e-05	0.00135499	0.587176	21816.8	21816.8	21816.8	0	0	1	-360	360;
	2	3	3.07838e-05	0.00101587	0.440218	21816.8	21816.8	21816.8	0	0	1	-360	360;
	58	40	3.67415e-05	0.00121247	0.525415	21816.8	21816.8	21816.8	0	0	1	-360	360;
	52	41	2.06223e-05	0.000680534	0.294905	21816.8	21816.8	21816.8	0	0	1	-360	360;
	52	41	2.05619e-05	0.000678544	0.294042	21816.8	21816.8	21816.8	0	0	1	-360	360;
	41	2	8.99674e-05	0.00296892	1.28656	21816.8	21816.8	21816.8	0	0	1	-360	360;
	41	2	9.00496e-05	0.00297164	1.28774	21816.8	21816.8	21816.8	0	0	1	-360	360;
	38	12	4.85722e-05	0.00160288	0.694598	21816.8	21816.8	21816.8	0	0	1	-360	360;
	15	57	2.64074e-05	0.000871443	0.377634	21816.8	21816.8	21816.8	0	0	1	-360	360;
	14	35	0.00087265	0.0287974	12.4792	5524	5524	5524	0	0	1	-360	360;
	15	54	3.05902e-05	0.00100948	0.43745	21816.8	21816.8	21816.8	0	0	1	-360	360;
	15	44	2.04111e-05	0.000673566	0.291885	21816.8	21816.8	21816.8	0	0	1	-360	360;
	33	16	1.68543e-05	0.000556191	2.16919	65450.3	65450.3	65450.3	0	0	1	-360	360;
	46	25	0.000384155	0.0126771	49.4418	4380.16	4380.16	4380.16	0	0	1	-360	360;
	46	34	0.000158144	0.00521877	2.26151	21816.8	21816.8	21816.8	0	0	1	-360	360;
	36	34	0.0004801	0.0158433	6.86558	9623.5	9623.5	9623.5	0	0	1	-360	360;
	36	17	0.000515482	0.0170109	7.37156	8988.02	8988.02	8988.02	0	0	1	-360	360;
	17	26	0.000741885	0.0244822	10.6092	6388.4	6388.4	6388.4	0	0	1	-360	360;
	55	33	2.56873e-05	0.000847682	0.367337	21816.8	21816.8	21816.8	0	0	1	-360	360;
	27	4	3.13011e-05	0.00103294	0.447615	21816.8	21816.8	21816.8	0	0	1	-360	360;
	37	58	2.09939e-05	0.000692798	0.300219	21816.8	21816.8	21816.8	0	0	1	-360	360;
	14	16	7.62934e-05	0.00251768	1.09102	21816.8	21816.8	21816.8	0	0	1	-360	360;
	57	14	0.000214873	0.00709081	3.07275	21191.4	21191.4	21191.4	0	0	1	-360	360;
	57	10	6.64388e-05	0.00219248	0.950096	21816.8	21816.8	21816.8	0	0	1	-360	360;
	18	19	0.000239139	0.00789159	3.41976	19057.6	19057.6	19057.6	0	0	1	-360	360;
	18	5	0.000304453	0.0100469	4.35377	15011.1	15011.1	15011.1	0	0	1	-360	360;
	51	49	0.000418159	0.0137993	5.9798	11000.5	11000.5	11000.5	0	0	1	-360	360;
	51	49	0.000418344	0.0138054	5.98245	10995.7	10995.7	10995.7	0	0	1	-360	360;
	51	49	0.000418529	0.0138115	5.9851	10991	10991	10991	0	0	1	-360	360;
	56	11	1.10379e-05	0.000347283	0	100000	100000	100000	0	0	1	-360	360;
];

%% generator cost data
%	2	startup	shutdown	n	c(n-1)	...	c0
mpc.gencost = [
	2	0	0	3	0.0001	0	0;
	2	0	0	3	0.0001	0	0;
	2	0	0	3	0.0001	0	0;
	2	0	0	3	0.0001	0	0;
	2	0	0	3	0.0001	0	0;
	2	0	0	3	0.0001	0	0;
	2	0	0	3	0.0001	-0.3	0;
	2	0	0	3	0.0001	0	0;
	2	0	0	3	0.0001	0.01	0;
	2	0	0	3	0.0001	0	0;
	2	0	0	3	0.0001	0.01	0;
	2	0	0	3	0.0001	0	0;
	2	0	0	3	0.0001	0	0;
	2	0	0	3	0.0001	0	0;
	2	0	0	3	0.0001	0	0;
	2	0	0	3	0.0001	0	0;
	2	0	0	3	0.0001	0	0;
	2	0	0	3	0.0001	0	0;
	2	0	0	3	0.0001	0	0;
	2	0	0	3	0.0001	0.01	0;
	2	0	0	3	0.0001	0	0;
	2	0	0	3	0.0001	0	0;
	2	0	0	3	0.0001	0	0;
	2	0	0	3	0.0001	0	0;
	2	0	0	3	0.0001	0	0;
	2	0	0	3	0.0001	0	0;
	2	0	0	3	0.0001	0	0;
	2	0	0	3	0.0001	0	0;
	2	0	0	3	0.0001	0	0;
	2	0	0	3	0.0001	0	0;
	2	0	0	3	0.0001	0	0;
	2	0	0	3	0.0001	0	0;
	2	0	0	3	0.0001	0	0;
	2	0	0	3	0.0001	0	0;
	2	0	0	3	0.0001	0	0;
	2	0	0	3	0.0001	0	0;
	2	0	0	3	0.0001	0	0;
	2	0	0	3	0.0001	0	0;
];
